<?xml version="1.0" encoding="UTF-8"?>

<!-- generated on Wed Dec  7 01:48:29 2016 by SUMO netconvert Version 0.28.0
<?xml version="1.0" encoding="UTF-8"?>

<configuration xmlns:xsi="http://www.w3.org/2001/XMLSchema-instance" xsi:noNamespaceSchemaLocation="http://sumo.dlr.de/xsd/netconvertConfiguration.xsd">

    <input>
        <sumo-net-file value="input/mapa.net.xml"/>
    </input>

    <output>
        <plain-output-prefix value="netDef/xml/mapa"/>
    </output>

    <processing>
        <no-turnarounds value="true"/>
        <offset.disable-normalization value="true"/>
        <lefthand value="false"/>
        <junctions.corner-detail value="0"/>
    </processing>

</configuration>
-->

<nodes version="0.27" xmlns:xsi="http://www.w3.org/2001/XMLSchema-instance" xsi:noNamespaceSchemaLocation="http://sumo.dlr.de/xsd/nodes_file.xsd">
    <location netOffset="150.00,150.00" convBoundary="0.00,0.00,900.00,900.00" origBoundary="-150.00,-150.00,750.00,750.00" projParameter="!"/>

    <node id="0" x="150.00" y="750.00" type="traffic_light" tl="0"/>
    <node id="1" x="300.00" y="750.00" type="traffic_light" tl="1"/>
    <node id="10" x="150.00" y="450.00" type="traffic_light" tl="10"/>
    <node id="11" x="300.00" y="450.00" type="traffic_light" tl="11"/>
    <node id="12" x="450.00" y="450.00" type="traffic_light" tl="12"/>
    <node id="13" x="600.00" y="450.00" type="traffic_light" tl="13"/>
    <node id="14" x="750.00" y="450.00" type="traffic_light" tl="14"/>
    <node id="15" x="150.00" y="300.00" type="traffic_light" tl="15"/>
    <node id="16" x="300.00" y="300.00" type="traffic_light" tl="16"/>
    <node id="17" x="450.00" y="300.00" type="traffic_light" tl="17"/>
    <node id="18" x="600.00" y="300.00" type="traffic_light" tl="18"/>
    <node id="19" x="750.00" y="300.00" type="traffic_light" tl="19"/>
    <node id="2" x="450.00" y="750.00" type="traffic_light" tl="2"/>
    <node id="20" x="150.00" y="150.00" type="traffic_light" tl="20"/>
    <node id="21" x="300.00" y="150.00" type="traffic_light" tl="21"/>
    <node id="22" x="450.00" y="150.00" type="traffic_light" tl="22"/>
    <node id="23" x="600.00" y="150.00" type="traffic_light" tl="23"/>
    <node id="24" x="750.00" y="150.00" type="traffic_light" tl="24"/>
    <node id="25" x="150.00" y="900.00" type="unregulated"/>
    <node id="26" x="300.00" y="900.00" type="unregulated"/>
    <node id="27" x="450.00" y="900.00" type="unregulated"/>
    <node id="28" x="600.00" y="900.00" type="unregulated"/>
    <node id="29" x="750.00" y="900.00" type="unregulated"/>
    <node id="3" x="600.00" y="750.00" type="traffic_light" tl="3"/>
    <node id="30" x="150.00" y="0.00" type="unregulated"/>
    <node id="31" x="300.00" y="0.00" type="unregulated"/>
    <node id="32" x="450.00" y="0.00" type="unregulated"/>
    <node id="33" x="600.00" y="0.00" type="unregulated"/>
    <node id="34" x="750.00" y="0.00" type="unregulated"/>
    <node id="35" x="900.00" y="150.00" type="unregulated"/>
    <node id="36" x="900.00" y="300.00" type="unregulated"/>
    <node id="37" x="900.00" y="450.00" type="unregulated"/>
    <node id="38" x="900.00" y="600.00" type="unregulated"/>
    <node id="39" x="900.00" y="750.00" type="unregulated"/>
    <node id="4" x="750.00" y="750.00" type="traffic_light" tl="4"/>
    <node id="40" x="0.00" y="150.00" type="unregulated"/>
    <node id="41" x="0.00" y="300.00" type="unregulated"/>
    <node id="42" x="0.00" y="450.00" type="unregulated"/>
    <node id="43" x="0.00" y="600.00" type="unregulated"/>
    <node id="44" x="0.00" y="750.00" type="unregulated"/>
    <node id="5" x="150.00" y="600.00" type="traffic_light" tl="5"/>
    <node id="6" x="300.00" y="600.00" type="traffic_light" tl="6"/>
    <node id="7" x="450.00" y="600.00" type="traffic_light" tl="7"/>
    <node id="8" x="600.00" y="600.00" type="traffic_light" tl="8"/>
    <node id="9" x="750.00" y="600.00" type="traffic_light" tl="9"/>
</nodes>
