<?xml version="1.0" encoding="UTF-8"?>

<!-- generated on Wed Dec  7 01:48:29 2016 by SUMO netconvert Version 0.28.0
<?xml version="1.0" encoding="UTF-8"?>

<configuration xmlns:xsi="http://www.w3.org/2001/XMLSchema-instance" xsi:noNamespaceSchemaLocation="http://sumo.dlr.de/xsd/netconvertConfiguration.xsd">

    <input>
        <sumo-net-file value="input/mapa.net.xml"/>
    </input>

    <output>
        <plain-output-prefix value="netDef/xml/mapa"/>
    </output>

    <processing>
        <no-turnarounds value="true"/>
        <offset.disable-normalization value="true"/>
        <lefthand value="false"/>
        <junctions.corner-detail value="0"/>
    </processing>

</configuration>
-->

<tlLogics version="0.27" xmlns:xsi="http://www.w3.org/2001/XMLSchema-instance" xsi:noNamespaceSchemaLocation="http://sumo.dlr.de/xsd/tllogic_file.xsd">
    <tlLogic id="0" type="static" programID="0" offset="0">
        <phase duration="41" state="GGGGGrrrr"/>
        <phase duration="4" state="yyyyyrrrr"/>
        <phase duration="41" state="rrrrrGGGG"/>
        <phase duration="4" state="rrrrryyyy"/>
    </tlLogic>
    <tlLogic id="1" type="static" programID="0" offset="0">
        <phase duration="41" state="GGGGrrrrr"/>
        <phase duration="4" state="yyyyrrrrr"/>
        <phase duration="41" state="rrrrGGGGG"/>
        <phase duration="4" state="rrrryyyyy"/>
    </tlLogic>
    <tlLogic id="10" type="static" programID="0" offset="0">
        <phase duration="41" state="GGGGGrrrr"/>
        <phase duration="4" state="yyyyyrrrr"/>
        <phase duration="41" state="rrrrrGGGG"/>
        <phase duration="4" state="rrrrryyyy"/>
    </tlLogic>
    <tlLogic id="11" type="static" programID="0" offset="0">
        <phase duration="41" state="GGGGrrrrr"/>
        <phase duration="4" state="yyyyrrrrr"/>
        <phase duration="41" state="rrrrGGGGG"/>
        <phase duration="4" state="rrrryyyyy"/>
    </tlLogic>
    <tlLogic id="12" type="static" programID="0" offset="0">
        <phase duration="41" state="GGGGGrrrr"/>
        <phase duration="4" state="yyyyyrrrr"/>
        <phase duration="41" state="rrrrrGGGG"/>
        <phase duration="4" state="rrrrryyyy"/>
    </tlLogic>
    <tlLogic id="13" type="static" programID="0" offset="0">
        <phase duration="41" state="GGGGrrrrr"/>
        <phase duration="4" state="yyyyrrrrr"/>
        <phase duration="41" state="rrrrGGGGG"/>
        <phase duration="4" state="rrrryyyyy"/>
    </tlLogic>
    <tlLogic id="14" type="static" programID="0" offset="0">
        <phase duration="41" state="GGGGGrrrr"/>
        <phase duration="4" state="yyyyyrrrr"/>
        <phase duration="41" state="rrrrrGGGG"/>
        <phase duration="4" state="rrrrryyyy"/>
    </tlLogic>
    <tlLogic id="15" type="static" programID="0" offset="0">
        <phase duration="41" state="GGGGrrrrr"/>
        <phase duration="4" state="yyyyrrrrr"/>
        <phase duration="41" state="rrrrGGGGG"/>
        <phase duration="4" state="rrrryyyyy"/>
    </tlLogic>
    <tlLogic id="16" type="static" programID="0" offset="0">
        <phase duration="41" state="GGGGrrrrr"/>
        <phase duration="4" state="yyyyrrrrr"/>
        <phase duration="41" state="rrrrGGGGG"/>
        <phase duration="4" state="rrrryyyyy"/>
    </tlLogic>
    <tlLogic id="17" type="static" programID="0" offset="0">
        <phase duration="41" state="GGGGrrrrr"/>
        <phase duration="4" state="yyyyrrrrr"/>
        <phase duration="41" state="rrrrGGGGG"/>
        <phase duration="4" state="rrrryyyyy"/>
    </tlLogic>
    <tlLogic id="18" type="static" programID="0" offset="0">
        <phase duration="41" state="GGGGrrrrr"/>
        <phase duration="4" state="yyyyrrrrr"/>
        <phase duration="41" state="rrrrGGGGG"/>
        <phase duration="4" state="rrrryyyyy"/>
    </tlLogic>
    <tlLogic id="19" type="static" programID="0" offset="0">
        <phase duration="41" state="GGGGrrrrr"/>
        <phase duration="4" state="yyyyrrrrr"/>
        <phase duration="41" state="rrrrGGGGG"/>
        <phase duration="4" state="rrrryyyyy"/>
    </tlLogic>
    <tlLogic id="2" type="static" programID="0" offset="0">
        <phase duration="41" state="GGGGGrrrr"/>
        <phase duration="4" state="yyyyyrrrr"/>
        <phase duration="41" state="rrrrrGGGG"/>
        <phase duration="4" state="rrrrryyyy"/>
    </tlLogic>
    <tlLogic id="20" type="static" programID="0" offset="0">
        <phase duration="41" state="GGGGGrrrr"/>
        <phase duration="4" state="yyyyyrrrr"/>
        <phase duration="41" state="rrrrrGGGG"/>
        <phase duration="4" state="rrrrryyyy"/>
    </tlLogic>
    <tlLogic id="21" type="static" programID="0" offset="0">
        <phase duration="41" state="GGGGrrrrr"/>
        <phase duration="4" state="yyyyrrrrr"/>
        <phase duration="41" state="rrrrGGGGG"/>
        <phase duration="4" state="rrrryyyyy"/>
    </tlLogic>
    <tlLogic id="22" type="static" programID="0" offset="0">
        <phase duration="41" state="GGGGGrrrr"/>
        <phase duration="4" state="yyyyyrrrr"/>
        <phase duration="41" state="rrrrrGGGG"/>
        <phase duration="4" state="rrrrryyyy"/>
    </tlLogic>
    <tlLogic id="23" type="static" programID="0" offset="0">
        <phase duration="41" state="GGGGrrrrr"/>
        <phase duration="4" state="yyyyrrrrr"/>
        <phase duration="41" state="rrrrGGGGG"/>
        <phase duration="4" state="rrrryyyyy"/>
    </tlLogic>
    <tlLogic id="24" type="static" programID="0" offset="0">
        <phase duration="41" state="GGGGGrrrr"/>
        <phase duration="4" state="yyyyyrrrr"/>
        <phase duration="41" state="rrrrrGGGG"/>
        <phase duration="4" state="rrrrryyyy"/>
    </tlLogic>
    <tlLogic id="3" type="static" programID="0" offset="0">
        <phase duration="41" state="GGGGrrrrr"/>
        <phase duration="4" state="yyyyrrrrr"/>
        <phase duration="41" state="rrrrGGGGG"/>
        <phase duration="4" state="rrrryyyyy"/>
    </tlLogic>
    <tlLogic id="4" type="static" programID="0" offset="0">
        <phase duration="41" state="GGGGGrrrr"/>
        <phase duration="4" state="yyyyyrrrr"/>
        <phase duration="41" state="rrrrrGGGG"/>
        <phase duration="4" state="rrrrryyyy"/>
    </tlLogic>
    <tlLogic id="5" type="static" programID="0" offset="0">
        <phase duration="41" state="GGGGrrrrr"/>
        <phase duration="4" state="yyyyrrrrr"/>
        <phase duration="41" state="rrrrGGGGG"/>
        <phase duration="4" state="rrrryyyyy"/>
    </tlLogic>
    <tlLogic id="6" type="static" programID="0" offset="0">
        <phase duration="41" state="GGGGrrrrr"/>
        <phase duration="4" state="yyyyrrrrr"/>
        <phase duration="41" state="rrrrGGGGG"/>
        <phase duration="4" state="rrrryyyyy"/>
    </tlLogic>
    <tlLogic id="7" type="static" programID="0" offset="0">
        <phase duration="41" state="GGGGrrrrr"/>
        <phase duration="4" state="yyyyrrrrr"/>
        <phase duration="41" state="rrrrGGGGG"/>
        <phase duration="4" state="rrrryyyyy"/>
    </tlLogic>
    <tlLogic id="8" type="static" programID="0" offset="0">
        <phase duration="41" state="GGGGrrrrr"/>
        <phase duration="4" state="yyyyrrrrr"/>
        <phase duration="41" state="rrrrGGGGG"/>
        <phase duration="4" state="rrrryyyyy"/>
    </tlLogic>
    <tlLogic id="9" type="static" programID="0" offset="0">
        <phase duration="41" state="GGGGrrrrr"/>
        <phase duration="4" state="yyyyrrrrr"/>
        <phase duration="41" state="rrrrGGGGG"/>
        <phase duration="4" state="rrrryyyyy"/>
    </tlLogic>

    <connection from="0to1" to="1to2" fromLane="0" toLane="0" tl="1" linkIndex="4"/>
    <connection from="0to1" to="1to2" fromLane="1" toLane="1" tl="1" linkIndex="5"/>
    <connection from="0to1" to="1to2" fromLane="2" toLane="2" tl="1" linkIndex="6"/>
    <connection from="0to1" to="1to26" fromLane="2" toLane="1" tl="1" linkIndex="7"/>
    <connection from="0to1" to="1to26" fromLane="2" toLane="2" tl="1" linkIndex="8"/>
    <connection from="0to5" to="5to43" fromLane="0" toLane="0" tl="5" linkIndex="0"/>
    <connection from="0to5" to="5to10" fromLane="0" toLane="0" tl="5" linkIndex="1"/>
    <connection from="0to5" to="5to10" fromLane="1" toLane="1" tl="5" linkIndex="2"/>
    <connection from="0to5" to="5to10" fromLane="2" toLane="2" tl="5" linkIndex="3"/>
    <connection from="10to11" to="11to12" fromLane="0" toLane="0" tl="11" linkIndex="4"/>
    <connection from="10to11" to="11to12" fromLane="1" toLane="1" tl="11" linkIndex="5"/>
    <connection from="10to11" to="11to12" fromLane="2" toLane="2" tl="11" linkIndex="6"/>
    <connection from="10to11" to="11to6" fromLane="2" toLane="1" tl="11" linkIndex="7"/>
    <connection from="10to11" to="11to6" fromLane="2" toLane="2" tl="11" linkIndex="8"/>
    <connection from="10to15" to="15to41" fromLane="0" toLane="0" tl="15" linkIndex="0"/>
    <connection from="10to15" to="15to20" fromLane="0" toLane="0" tl="15" linkIndex="1"/>
    <connection from="10to15" to="15to20" fromLane="1" toLane="1" tl="15" linkIndex="2"/>
    <connection from="10to15" to="15to20" fromLane="2" toLane="2" tl="15" linkIndex="3"/>
    <connection from="11to12" to="12to17" fromLane="0" toLane="0" tl="12" linkIndex="5"/>
    <connection from="11to12" to="12to13" fromLane="0" toLane="0" tl="12" linkIndex="6"/>
    <connection from="11to12" to="12to13" fromLane="1" toLane="1" tl="12" linkIndex="7"/>
    <connection from="11to12" to="12to13" fromLane="2" toLane="2" tl="12" linkIndex="8"/>
    <connection from="11to6" to="6to1" fromLane="0" toLane="0" tl="6" linkIndex="4"/>
    <connection from="11to6" to="6to1" fromLane="1" toLane="1" tl="6" linkIndex="5"/>
    <connection from="11to6" to="6to1" fromLane="2" toLane="2" tl="6" linkIndex="6"/>
    <connection from="11to6" to="6to5" fromLane="2" toLane="1" tl="6" linkIndex="7"/>
    <connection from="11to6" to="6to5" fromLane="2" toLane="2" tl="6" linkIndex="8"/>
    <connection from="12to13" to="13to14" fromLane="0" toLane="0" tl="13" linkIndex="4"/>
    <connection from="12to13" to="13to14" fromLane="1" toLane="1" tl="13" linkIndex="5"/>
    <connection from="12to13" to="13to14" fromLane="2" toLane="2" tl="13" linkIndex="6"/>
    <connection from="12to13" to="13to8" fromLane="2" toLane="1" tl="13" linkIndex="7"/>
    <connection from="12to13" to="13to8" fromLane="2" toLane="2" tl="13" linkIndex="8"/>
    <connection from="12to17" to="17to16" fromLane="0" toLane="0" tl="17" linkIndex="0"/>
    <connection from="12to17" to="17to22" fromLane="0" toLane="0" tl="17" linkIndex="1"/>
    <connection from="12to17" to="17to22" fromLane="1" toLane="1" tl="17" linkIndex="2"/>
    <connection from="12to17" to="17to22" fromLane="2" toLane="2" tl="17" linkIndex="3"/>
    <connection from="13to14" to="14to19" fromLane="0" toLane="0" tl="14" linkIndex="5"/>
    <connection from="13to14" to="14to37" fromLane="0" toLane="0" tl="14" linkIndex="6"/>
    <connection from="13to14" to="14to37" fromLane="1" toLane="1" tl="14" linkIndex="7"/>
    <connection from="13to14" to="14to37" fromLane="2" toLane="2" tl="14" linkIndex="8"/>
    <connection from="13to8" to="8to3" fromLane="0" toLane="0" tl="8" linkIndex="4"/>
    <connection from="13to8" to="8to3" fromLane="1" toLane="1" tl="8" linkIndex="5"/>
    <connection from="13to8" to="8to3" fromLane="2" toLane="2" tl="8" linkIndex="6"/>
    <connection from="13to8" to="8to7" fromLane="2" toLane="1" tl="8" linkIndex="7"/>
    <connection from="13to8" to="8to7" fromLane="2" toLane="2" tl="8" linkIndex="8"/>
    <connection from="14to19" to="19to18" fromLane="0" toLane="0" tl="19" linkIndex="0"/>
    <connection from="14to19" to="19to24" fromLane="0" toLane="0" tl="19" linkIndex="1"/>
    <connection from="14to19" to="19to24" fromLane="1" toLane="1" tl="19" linkIndex="2"/>
    <connection from="14to19" to="19to24" fromLane="2" toLane="2" tl="19" linkIndex="3"/>
    <connection from="15to20" to="20to30" fromLane="0" toLane="0" tl="20" linkIndex="0"/>
    <connection from="15to20" to="20to30" fromLane="1" toLane="1" tl="20" linkIndex="1"/>
    <connection from="15to20" to="20to30" fromLane="2" toLane="2" tl="20" linkIndex="2"/>
    <connection from="15to20" to="20to21" fromLane="2" toLane="1" tl="20" linkIndex="3"/>
    <connection from="15to20" to="20to21" fromLane="2" toLane="2" tl="20" linkIndex="4"/>
    <connection from="16to11" to="11to12" fromLane="0" toLane="0" tl="11" linkIndex="0"/>
    <connection from="16to11" to="11to6" fromLane="0" toLane="0" tl="11" linkIndex="1"/>
    <connection from="16to11" to="11to6" fromLane="1" toLane="1" tl="11" linkIndex="2"/>
    <connection from="16to11" to="11to6" fromLane="2" toLane="2" tl="11" linkIndex="3"/>
    <connection from="16to15" to="15to41" fromLane="0" toLane="0" tl="15" linkIndex="4"/>
    <connection from="16to15" to="15to41" fromLane="1" toLane="1" tl="15" linkIndex="5"/>
    <connection from="16to15" to="15to41" fromLane="2" toLane="2" tl="15" linkIndex="6"/>
    <connection from="16to15" to="15to20" fromLane="2" toLane="1" tl="15" linkIndex="7"/>
    <connection from="16to15" to="15to20" fromLane="2" toLane="2" tl="15" linkIndex="8"/>
    <connection from="17to16" to="16to11" fromLane="0" toLane="0" tl="16" linkIndex="0"/>
    <connection from="17to16" to="16to15" fromLane="0" toLane="0" tl="16" linkIndex="1"/>
    <connection from="17to16" to="16to15" fromLane="1" toLane="1" tl="16" linkIndex="2"/>
    <connection from="17to16" to="16to15" fromLane="2" toLane="2" tl="16" linkIndex="3"/>
    <connection from="17to22" to="22to32" fromLane="0" toLane="0" tl="22" linkIndex="0"/>
    <connection from="17to22" to="22to32" fromLane="1" toLane="1" tl="22" linkIndex="1"/>
    <connection from="17to22" to="22to32" fromLane="2" toLane="2" tl="22" linkIndex="2"/>
    <connection from="17to22" to="22to23" fromLane="2" toLane="1" tl="22" linkIndex="3"/>
    <connection from="17to22" to="22to23" fromLane="2" toLane="2" tl="22" linkIndex="4"/>
    <connection from="18to13" to="13to14" fromLane="0" toLane="0" tl="13" linkIndex="0"/>
    <connection from="18to13" to="13to8" fromLane="0" toLane="0" tl="13" linkIndex="1"/>
    <connection from="18to13" to="13to8" fromLane="1" toLane="1" tl="13" linkIndex="2"/>
    <connection from="18to13" to="13to8" fromLane="2" toLane="2" tl="13" linkIndex="3"/>
    <connection from="18to17" to="17to16" fromLane="0" toLane="0" tl="17" linkIndex="4"/>
    <connection from="18to17" to="17to16" fromLane="1" toLane="1" tl="17" linkIndex="5"/>
    <connection from="18to17" to="17to16" fromLane="2" toLane="2" tl="17" linkIndex="6"/>
    <connection from="18to17" to="17to22" fromLane="2" toLane="1" tl="17" linkIndex="7"/>
    <connection from="18to17" to="17to22" fromLane="2" toLane="2" tl="17" linkIndex="8"/>
    <connection from="19to18" to="18to13" fromLane="0" toLane="0" tl="18" linkIndex="0"/>
    <connection from="19to18" to="18to17" fromLane="0" toLane="0" tl="18" linkIndex="1"/>
    <connection from="19to18" to="18to17" fromLane="1" toLane="1" tl="18" linkIndex="2"/>
    <connection from="19to18" to="18to17" fromLane="2" toLane="2" tl="18" linkIndex="3"/>
    <connection from="19to24" to="24to34" fromLane="0" toLane="0" tl="24" linkIndex="0"/>
    <connection from="19to24" to="24to34" fromLane="1" toLane="1" tl="24" linkIndex="1"/>
    <connection from="19to24" to="24to34" fromLane="2" toLane="2" tl="24" linkIndex="2"/>
    <connection from="19to24" to="24to35" fromLane="2" toLane="1" tl="24" linkIndex="3"/>
    <connection from="19to24" to="24to35" fromLane="2" toLane="2" tl="24" linkIndex="4"/>
    <connection from="1to2" to="2to7" fromLane="0" toLane="0" tl="2" linkIndex="5"/>
    <connection from="1to2" to="2to3" fromLane="0" toLane="0" tl="2" linkIndex="6"/>
    <connection from="1to2" to="2to3" fromLane="1" toLane="1" tl="2" linkIndex="7"/>
    <connection from="1to2" to="2to3" fromLane="2" toLane="2" tl="2" linkIndex="8"/>
    <connection from="20to21" to="21to22" fromLane="0" toLane="0" tl="21" linkIndex="4"/>
    <connection from="20to21" to="21to22" fromLane="1" toLane="1" tl="21" linkIndex="5"/>
    <connection from="20to21" to="21to22" fromLane="2" toLane="2" tl="21" linkIndex="6"/>
    <connection from="20to21" to="21to16" fromLane="2" toLane="1" tl="21" linkIndex="7"/>
    <connection from="20to21" to="21to16" fromLane="2" toLane="2" tl="21" linkIndex="8"/>
    <connection from="21to16" to="16to11" fromLane="0" toLane="0" tl="16" linkIndex="4"/>
    <connection from="21to16" to="16to11" fromLane="1" toLane="1" tl="16" linkIndex="5"/>
    <connection from="21to16" to="16to11" fromLane="2" toLane="2" tl="16" linkIndex="6"/>
    <connection from="21to16" to="16to15" fromLane="2" toLane="1" tl="16" linkIndex="7"/>
    <connection from="21to16" to="16to15" fromLane="2" toLane="2" tl="16" linkIndex="8"/>
    <connection from="21to22" to="22to32" fromLane="0" toLane="0" tl="22" linkIndex="5"/>
    <connection from="21to22" to="22to23" fromLane="0" toLane="0" tl="22" linkIndex="6"/>
    <connection from="21to22" to="22to23" fromLane="1" toLane="1" tl="22" linkIndex="7"/>
    <connection from="21to22" to="22to23" fromLane="2" toLane="2" tl="22" linkIndex="8"/>
    <connection from="22to23" to="23to24" fromLane="0" toLane="0" tl="23" linkIndex="4"/>
    <connection from="22to23" to="23to24" fromLane="1" toLane="1" tl="23" linkIndex="5"/>
    <connection from="22to23" to="23to24" fromLane="2" toLane="2" tl="23" linkIndex="6"/>
    <connection from="22to23" to="23to18" fromLane="2" toLane="1" tl="23" linkIndex="7"/>
    <connection from="22to23" to="23to18" fromLane="2" toLane="2" tl="23" linkIndex="8"/>
    <connection from="23to18" to="18to13" fromLane="0" toLane="0" tl="18" linkIndex="4"/>
    <connection from="23to18" to="18to13" fromLane="1" toLane="1" tl="18" linkIndex="5"/>
    <connection from="23to18" to="18to13" fromLane="2" toLane="2" tl="18" linkIndex="6"/>
    <connection from="23to18" to="18to17" fromLane="2" toLane="1" tl="18" linkIndex="7"/>
    <connection from="23to18" to="18to17" fromLane="2" toLane="2" tl="18" linkIndex="8"/>
    <connection from="23to24" to="24to34" fromLane="0" toLane="0" tl="24" linkIndex="5"/>
    <connection from="23to24" to="24to35" fromLane="0" toLane="0" tl="24" linkIndex="6"/>
    <connection from="23to24" to="24to35" fromLane="1" toLane="1" tl="24" linkIndex="7"/>
    <connection from="23to24" to="24to35" fromLane="2" toLane="2" tl="24" linkIndex="8"/>
    <connection from="25to0" to="0to5" fromLane="0" toLane="0" tl="0" linkIndex="0"/>
    <connection from="25to0" to="0to5" fromLane="1" toLane="1" tl="0" linkIndex="1"/>
    <connection from="25to0" to="0to5" fromLane="2" toLane="2" tl="0" linkIndex="2"/>
    <connection from="25to0" to="0to1" fromLane="2" toLane="1" tl="0" linkIndex="3"/>
    <connection from="25to0" to="0to1" fromLane="2" toLane="2" tl="0" linkIndex="4"/>
    <connection from="27to2" to="2to7" fromLane="0" toLane="0" tl="2" linkIndex="0"/>
    <connection from="27to2" to="2to7" fromLane="1" toLane="1" tl="2" linkIndex="1"/>
    <connection from="27to2" to="2to7" fromLane="2" toLane="2" tl="2" linkIndex="2"/>
    <connection from="27to2" to="2to3" fromLane="2" toLane="1" tl="2" linkIndex="3"/>
    <connection from="27to2" to="2to3" fromLane="2" toLane="2" tl="2" linkIndex="4"/>
    <connection from="29to4" to="4to9" fromLane="0" toLane="0" tl="4" linkIndex="0"/>
    <connection from="29to4" to="4to9" fromLane="1" toLane="1" tl="4" linkIndex="1"/>
    <connection from="29to4" to="4to9" fromLane="2" toLane="2" tl="4" linkIndex="2"/>
    <connection from="29to4" to="4to39" fromLane="2" toLane="1" tl="4" linkIndex="3"/>
    <connection from="29to4" to="4to39" fromLane="2" toLane="2" tl="4" linkIndex="4"/>
    <connection from="2to3" to="3to4" fromLane="0" toLane="0" tl="3" linkIndex="4"/>
    <connection from="2to3" to="3to4" fromLane="1" toLane="1" tl="3" linkIndex="5"/>
    <connection from="2to3" to="3to4" fromLane="2" toLane="2" tl="3" linkIndex="6"/>
    <connection from="2to3" to="3to28" fromLane="2" toLane="1" tl="3" linkIndex="7"/>
    <connection from="2to3" to="3to28" fromLane="2" toLane="2" tl="3" linkIndex="8"/>
    <connection from="2to7" to="7to6" fromLane="0" toLane="0" tl="7" linkIndex="0"/>
    <connection from="2to7" to="7to12" fromLane="0" toLane="0" tl="7" linkIndex="1"/>
    <connection from="2to7" to="7to12" fromLane="1" toLane="1" tl="7" linkIndex="2"/>
    <connection from="2to7" to="7to12" fromLane="2" toLane="2" tl="7" linkIndex="3"/>
    <connection from="31to21" to="21to22" fromLane="0" toLane="0" tl="21" linkIndex="0"/>
    <connection from="31to21" to="21to16" fromLane="0" toLane="0" tl="21" linkIndex="1"/>
    <connection from="31to21" to="21to16" fromLane="1" toLane="1" tl="21" linkIndex="2"/>
    <connection from="31to21" to="21to16" fromLane="2" toLane="2" tl="21" linkIndex="3"/>
    <connection from="33to23" to="23to24" fromLane="0" toLane="0" tl="23" linkIndex="0"/>
    <connection from="33to23" to="23to18" fromLane="0" toLane="0" tl="23" linkIndex="1"/>
    <connection from="33to23" to="23to18" fromLane="1" toLane="1" tl="23" linkIndex="2"/>
    <connection from="33to23" to="23to18" fromLane="2" toLane="2" tl="23" linkIndex="3"/>
    <connection from="36to19" to="19to18" fromLane="0" toLane="0" tl="19" linkIndex="4"/>
    <connection from="36to19" to="19to18" fromLane="1" toLane="1" tl="19" linkIndex="5"/>
    <connection from="36to19" to="19to18" fromLane="2" toLane="2" tl="19" linkIndex="6"/>
    <connection from="36to19" to="19to24" fromLane="2" toLane="1" tl="19" linkIndex="7"/>
    <connection from="36to19" to="19to24" fromLane="2" toLane="2" tl="19" linkIndex="8"/>
    <connection from="38to9" to="9to8" fromLane="0" toLane="0" tl="9" linkIndex="4"/>
    <connection from="38to9" to="9to8" fromLane="1" toLane="1" tl="9" linkIndex="5"/>
    <connection from="38to9" to="9to8" fromLane="2" toLane="2" tl="9" linkIndex="6"/>
    <connection from="38to9" to="9to14" fromLane="2" toLane="1" tl="9" linkIndex="7"/>
    <connection from="38to9" to="9to14" fromLane="2" toLane="2" tl="9" linkIndex="8"/>
    <connection from="3to4" to="4to9" fromLane="0" toLane="0" tl="4" linkIndex="5"/>
    <connection from="3to4" to="4to39" fromLane="0" toLane="0" tl="4" linkIndex="6"/>
    <connection from="3to4" to="4to39" fromLane="1" toLane="1" tl="4" linkIndex="7"/>
    <connection from="3to4" to="4to39" fromLane="2" toLane="2" tl="4" linkIndex="8"/>
    <connection from="40to20" to="20to30" fromLane="0" toLane="0" tl="20" linkIndex="5"/>
    <connection from="40to20" to="20to21" fromLane="0" toLane="0" tl="20" linkIndex="6"/>
    <connection from="40to20" to="20to21" fromLane="1" toLane="1" tl="20" linkIndex="7"/>
    <connection from="40to20" to="20to21" fromLane="2" toLane="2" tl="20" linkIndex="8"/>
    <connection from="42to10" to="10to15" fromLane="0" toLane="0" tl="10" linkIndex="5"/>
    <connection from="42to10" to="10to11" fromLane="0" toLane="0" tl="10" linkIndex="6"/>
    <connection from="42to10" to="10to11" fromLane="1" toLane="1" tl="10" linkIndex="7"/>
    <connection from="42to10" to="10to11" fromLane="2" toLane="2" tl="10" linkIndex="8"/>
    <connection from="44to0" to="0to5" fromLane="0" toLane="0" tl="0" linkIndex="5"/>
    <connection from="44to0" to="0to1" fromLane="0" toLane="0" tl="0" linkIndex="6"/>
    <connection from="44to0" to="0to1" fromLane="1" toLane="1" tl="0" linkIndex="7"/>
    <connection from="44to0" to="0to1" fromLane="2" toLane="2" tl="0" linkIndex="8"/>
    <connection from="4to9" to="9to8" fromLane="0" toLane="0" tl="9" linkIndex="0"/>
    <connection from="4to9" to="9to14" fromLane="0" toLane="0" tl="9" linkIndex="1"/>
    <connection from="4to9" to="9to14" fromLane="1" toLane="1" tl="9" linkIndex="2"/>
    <connection from="4to9" to="9to14" fromLane="2" toLane="2" tl="9" linkIndex="3"/>
    <connection from="5to10" to="10to15" fromLane="0" toLane="0" tl="10" linkIndex="0"/>
    <connection from="5to10" to="10to15" fromLane="1" toLane="1" tl="10" linkIndex="1"/>
    <connection from="5to10" to="10to15" fromLane="2" toLane="2" tl="10" linkIndex="2"/>
    <connection from="5to10" to="10to11" fromLane="2" toLane="1" tl="10" linkIndex="3"/>
    <connection from="5to10" to="10to11" fromLane="2" toLane="2" tl="10" linkIndex="4"/>
    <connection from="6to1" to="1to2" fromLane="0" toLane="0" tl="1" linkIndex="0"/>
    <connection from="6to1" to="1to26" fromLane="0" toLane="0" tl="1" linkIndex="1"/>
    <connection from="6to1" to="1to26" fromLane="1" toLane="1" tl="1" linkIndex="2"/>
    <connection from="6to1" to="1to26" fromLane="2" toLane="2" tl="1" linkIndex="3"/>
    <connection from="6to5" to="5to43" fromLane="0" toLane="0" tl="5" linkIndex="4"/>
    <connection from="6to5" to="5to43" fromLane="1" toLane="1" tl="5" linkIndex="5"/>
    <connection from="6to5" to="5to43" fromLane="2" toLane="2" tl="5" linkIndex="6"/>
    <connection from="6to5" to="5to10" fromLane="2" toLane="1" tl="5" linkIndex="7"/>
    <connection from="6to5" to="5to10" fromLane="2" toLane="2" tl="5" linkIndex="8"/>
    <connection from="7to12" to="12to17" fromLane="0" toLane="0" tl="12" linkIndex="0"/>
    <connection from="7to12" to="12to17" fromLane="1" toLane="1" tl="12" linkIndex="1"/>
    <connection from="7to12" to="12to17" fromLane="2" toLane="2" tl="12" linkIndex="2"/>
    <connection from="7to12" to="12to13" fromLane="2" toLane="1" tl="12" linkIndex="3"/>
    <connection from="7to12" to="12to13" fromLane="2" toLane="2" tl="12" linkIndex="4"/>
    <connection from="7to6" to="6to1" fromLane="0" toLane="0" tl="6" linkIndex="0"/>
    <connection from="7to6" to="6to5" fromLane="0" toLane="0" tl="6" linkIndex="1"/>
    <connection from="7to6" to="6to5" fromLane="1" toLane="1" tl="6" linkIndex="2"/>
    <connection from="7to6" to="6to5" fromLane="2" toLane="2" tl="6" linkIndex="3"/>
    <connection from="8to3" to="3to4" fromLane="0" toLane="0" tl="3" linkIndex="0"/>
    <connection from="8to3" to="3to28" fromLane="0" toLane="0" tl="3" linkIndex="1"/>
    <connection from="8to3" to="3to28" fromLane="1" toLane="1" tl="3" linkIndex="2"/>
    <connection from="8to3" to="3to28" fromLane="2" toLane="2" tl="3" linkIndex="3"/>
    <connection from="8to7" to="7to6" fromLane="0" toLane="0" tl="7" linkIndex="4"/>
    <connection from="8to7" to="7to6" fromLane="1" toLane="1" tl="7" linkIndex="5"/>
    <connection from="8to7" to="7to6" fromLane="2" toLane="2" tl="7" linkIndex="6"/>
    <connection from="8to7" to="7to12" fromLane="2" toLane="1" tl="7" linkIndex="7"/>
    <connection from="8to7" to="7to12" fromLane="2" toLane="2" tl="7" linkIndex="8"/>
    <connection from="9to14" to="14to19" fromLane="0" toLane="0" tl="14" linkIndex="0"/>
    <connection from="9to14" to="14to19" fromLane="1" toLane="1" tl="14" linkIndex="1"/>
    <connection from="9to14" to="14to19" fromLane="2" toLane="2" tl="14" linkIndex="2"/>
    <connection from="9to14" to="14to37" fromLane="2" toLane="1" tl="14" linkIndex="3"/>
    <connection from="9to14" to="14to37" fromLane="2" toLane="2" tl="14" linkIndex="4"/>
    <connection from="9to8" to="8to3" fromLane="0" toLane="0" tl="8" linkIndex="0"/>
    <connection from="9to8" to="8to7" fromLane="0" toLane="0" tl="8" linkIndex="1"/>
    <connection from="9to8" to="8to7" fromLane="1" toLane="1" tl="8" linkIndex="2"/>
    <connection from="9to8" to="8to7" fromLane="2" toLane="2" tl="8" linkIndex="3"/>
</tlLogics>
