<?xml version="1.0" encoding="UTF-8"?>

<!-- generated on Wed Dec  7 01:48:29 2016 by SUMO netconvert Version 0.28.0
<?xml version="1.0" encoding="UTF-8"?>

<configuration xmlns:xsi="http://www.w3.org/2001/XMLSchema-instance" xsi:noNamespaceSchemaLocation="http://sumo.dlr.de/xsd/netconvertConfiguration.xsd">

    <input>
        <sumo-net-file value="input/mapa.net.xml"/>
    </input>

    <output>
        <plain-output-prefix value="netDef/xml/mapa"/>
    </output>

    <processing>
        <no-turnarounds value="true"/>
        <offset.disable-normalization value="true"/>
        <lefthand value="false"/>
        <junctions.corner-detail value="0"/>
    </processing>

</configuration>
-->

<connections version="0.27" xmlns:xsi="http://www.w3.org/2001/XMLSchema-instance" xsi:noNamespaceSchemaLocation="http://sumo.dlr.de/xsd/connections_file.xsd">
    <connection from="0to1" to="1to2" fromLane="0" toLane="0"/>
    <connection from="0to1" to="1to2" fromLane="1" toLane="1"/>
    <connection from="0to1" to="1to2" fromLane="2" toLane="2"/>
    <connection from="0to1" to="1to26" fromLane="2" toLane="1"/>
    <connection from="0to1" to="1to26" fromLane="2" toLane="2"/>

    <connection from="0to5" to="5to43" fromLane="0" toLane="0"/>
    <connection from="0to5" to="5to10" fromLane="0" toLane="0"/>
    <connection from="0to5" to="5to10" fromLane="1" toLane="1"/>
    <connection from="0to5" to="5to10" fromLane="2" toLane="2"/>

    <connection from="10to11" to="11to12" fromLane="0" toLane="0"/>
    <connection from="10to11" to="11to12" fromLane="1" toLane="1"/>
    <connection from="10to11" to="11to12" fromLane="2" toLane="2"/>
    <connection from="10to11" to="11to6" fromLane="2" toLane="1"/>
    <connection from="10to11" to="11to6" fromLane="2" toLane="2"/>

    <connection from="10to15" to="15to41" fromLane="0" toLane="0"/>
    <connection from="10to15" to="15to20" fromLane="0" toLane="0"/>
    <connection from="10to15" to="15to20" fromLane="1" toLane="1"/>
    <connection from="10to15" to="15to20" fromLane="2" toLane="2"/>

    <connection from="11to12" to="12to17" fromLane="0" toLane="0"/>
    <connection from="11to12" to="12to13" fromLane="0" toLane="0"/>
    <connection from="11to12" to="12to13" fromLane="1" toLane="1"/>
    <connection from="11to12" to="12to13" fromLane="2" toLane="2"/>

    <connection from="11to6" to="6to1" fromLane="0" toLane="0"/>
    <connection from="11to6" to="6to1" fromLane="1" toLane="1"/>
    <connection from="11to6" to="6to1" fromLane="2" toLane="2"/>
    <connection from="11to6" to="6to5" fromLane="2" toLane="1"/>
    <connection from="11to6" to="6to5" fromLane="2" toLane="2"/>

    <connection from="12to13" to="13to14" fromLane="0" toLane="0"/>
    <connection from="12to13" to="13to14" fromLane="1" toLane="1"/>
    <connection from="12to13" to="13to14" fromLane="2" toLane="2"/>
    <connection from="12to13" to="13to8" fromLane="2" toLane="1"/>
    <connection from="12to13" to="13to8" fromLane="2" toLane="2"/>

    <connection from="12to17" to="17to16" fromLane="0" toLane="0"/>
    <connection from="12to17" to="17to22" fromLane="0" toLane="0"/>
    <connection from="12to17" to="17to22" fromLane="1" toLane="1"/>
    <connection from="12to17" to="17to22" fromLane="2" toLane="2"/>

    <connection from="13to14" to="14to19" fromLane="0" toLane="0"/>
    <connection from="13to14" to="14to37" fromLane="0" toLane="0"/>
    <connection from="13to14" to="14to37" fromLane="1" toLane="1"/>
    <connection from="13to14" to="14to37" fromLane="2" toLane="2"/>

    <connection from="13to8" to="8to3" fromLane="0" toLane="0"/>
    <connection from="13to8" to="8to3" fromLane="1" toLane="1"/>
    <connection from="13to8" to="8to3" fromLane="2" toLane="2"/>
    <connection from="13to8" to="8to7" fromLane="2" toLane="1"/>
    <connection from="13to8" to="8to7" fromLane="2" toLane="2"/>

    <connection from="14to19" to="19to18" fromLane="0" toLane="0"/>
    <connection from="14to19" to="19to24" fromLane="0" toLane="0"/>
    <connection from="14to19" to="19to24" fromLane="1" toLane="1"/>
    <connection from="14to19" to="19to24" fromLane="2" toLane="2"/>

    <connection from="15to20" to="20to30" fromLane="0" toLane="0"/>
    <connection from="15to20" to="20to30" fromLane="1" toLane="1"/>
    <connection from="15to20" to="20to30" fromLane="2" toLane="2"/>
    <connection from="15to20" to="20to21" fromLane="2" toLane="1"/>
    <connection from="15to20" to="20to21" fromLane="2" toLane="2"/>

    <connection from="16to11" to="11to12" fromLane="0" toLane="0"/>
    <connection from="16to11" to="11to6" fromLane="0" toLane="0"/>
    <connection from="16to11" to="11to6" fromLane="1" toLane="1"/>
    <connection from="16to11" to="11to6" fromLane="2" toLane="2"/>

    <connection from="16to15" to="15to41" fromLane="0" toLane="0"/>
    <connection from="16to15" to="15to41" fromLane="1" toLane="1"/>
    <connection from="16to15" to="15to41" fromLane="2" toLane="2"/>
    <connection from="16to15" to="15to20" fromLane="2" toLane="1"/>
    <connection from="16to15" to="15to20" fromLane="2" toLane="2"/>

    <connection from="17to16" to="16to11" fromLane="0" toLane="0"/>
    <connection from="17to16" to="16to15" fromLane="0" toLane="0"/>
    <connection from="17to16" to="16to15" fromLane="1" toLane="1"/>
    <connection from="17to16" to="16to15" fromLane="2" toLane="2"/>

    <connection from="17to22" to="22to32" fromLane="0" toLane="0"/>
    <connection from="17to22" to="22to32" fromLane="1" toLane="1"/>
    <connection from="17to22" to="22to32" fromLane="2" toLane="2"/>
    <connection from="17to22" to="22to23" fromLane="2" toLane="1"/>
    <connection from="17to22" to="22to23" fromLane="2" toLane="2"/>

    <connection from="18to13" to="13to14" fromLane="0" toLane="0"/>
    <connection from="18to13" to="13to8" fromLane="0" toLane="0"/>
    <connection from="18to13" to="13to8" fromLane="1" toLane="1"/>
    <connection from="18to13" to="13to8" fromLane="2" toLane="2"/>

    <connection from="18to17" to="17to16" fromLane="0" toLane="0"/>
    <connection from="18to17" to="17to16" fromLane="1" toLane="1"/>
    <connection from="18to17" to="17to16" fromLane="2" toLane="2"/>
    <connection from="18to17" to="17to22" fromLane="2" toLane="1"/>
    <connection from="18to17" to="17to22" fromLane="2" toLane="2"/>

    <connection from="19to18" to="18to13" fromLane="0" toLane="0"/>
    <connection from="19to18" to="18to17" fromLane="0" toLane="0"/>
    <connection from="19to18" to="18to17" fromLane="1" toLane="1"/>
    <connection from="19to18" to="18to17" fromLane="2" toLane="2"/>

    <connection from="19to24" to="24to34" fromLane="0" toLane="0"/>
    <connection from="19to24" to="24to34" fromLane="1" toLane="1"/>
    <connection from="19to24" to="24to34" fromLane="2" toLane="2"/>
    <connection from="19to24" to="24to35" fromLane="2" toLane="1"/>
    <connection from="19to24" to="24to35" fromLane="2" toLane="2"/>

    <connection from="1to2" to="2to7" fromLane="0" toLane="0"/>
    <connection from="1to2" to="2to3" fromLane="0" toLane="0"/>
    <connection from="1to2" to="2to3" fromLane="1" toLane="1"/>
    <connection from="1to2" to="2to3" fromLane="2" toLane="2"/>

    <connection from="20to21" to="21to22" fromLane="0" toLane="0"/>
    <connection from="20to21" to="21to22" fromLane="1" toLane="1"/>
    <connection from="20to21" to="21to22" fromLane="2" toLane="2"/>
    <connection from="20to21" to="21to16" fromLane="2" toLane="1"/>
    <connection from="20to21" to="21to16" fromLane="2" toLane="2"/>

    <connection from="21to16" to="16to11" fromLane="0" toLane="0"/>
    <connection from="21to16" to="16to11" fromLane="1" toLane="1"/>
    <connection from="21to16" to="16to11" fromLane="2" toLane="2"/>
    <connection from="21to16" to="16to15" fromLane="2" toLane="1"/>
    <connection from="21to16" to="16to15" fromLane="2" toLane="2"/>

    <connection from="21to22" to="22to32" fromLane="0" toLane="0"/>
    <connection from="21to22" to="22to23" fromLane="0" toLane="0"/>
    <connection from="21to22" to="22to23" fromLane="1" toLane="1"/>
    <connection from="21to22" to="22to23" fromLane="2" toLane="2"/>

    <connection from="22to23" to="23to24" fromLane="0" toLane="0"/>
    <connection from="22to23" to="23to24" fromLane="1" toLane="1"/>
    <connection from="22to23" to="23to24" fromLane="2" toLane="2"/>
    <connection from="22to23" to="23to18" fromLane="2" toLane="1"/>
    <connection from="22to23" to="23to18" fromLane="2" toLane="2"/>

    <connection from="23to18" to="18to13" fromLane="0" toLane="0"/>
    <connection from="23to18" to="18to13" fromLane="1" toLane="1"/>
    <connection from="23to18" to="18to13" fromLane="2" toLane="2"/>
    <connection from="23to18" to="18to17" fromLane="2" toLane="1"/>
    <connection from="23to18" to="18to17" fromLane="2" toLane="2"/>

    <connection from="23to24" to="24to34" fromLane="0" toLane="0"/>
    <connection from="23to24" to="24to35" fromLane="0" toLane="0"/>
    <connection from="23to24" to="24to35" fromLane="1" toLane="1"/>
    <connection from="23to24" to="24to35" fromLane="2" toLane="2"/>

    <connection from="25to0" to="0to5" fromLane="0" toLane="0"/>
    <connection from="25to0" to="0to5" fromLane="1" toLane="1"/>
    <connection from="25to0" to="0to5" fromLane="2" toLane="2"/>
    <connection from="25to0" to="0to1" fromLane="2" toLane="1"/>
    <connection from="25to0" to="0to1" fromLane="2" toLane="2"/>

    <connection from="27to2" to="2to7" fromLane="0" toLane="0"/>
    <connection from="27to2" to="2to7" fromLane="1" toLane="1"/>
    <connection from="27to2" to="2to7" fromLane="2" toLane="2"/>
    <connection from="27to2" to="2to3" fromLane="2" toLane="1"/>
    <connection from="27to2" to="2to3" fromLane="2" toLane="2"/>

    <connection from="29to4" to="4to9" fromLane="0" toLane="0"/>
    <connection from="29to4" to="4to9" fromLane="1" toLane="1"/>
    <connection from="29to4" to="4to9" fromLane="2" toLane="2"/>
    <connection from="29to4" to="4to39" fromLane="2" toLane="1"/>
    <connection from="29to4" to="4to39" fromLane="2" toLane="2"/>

    <connection from="2to3" to="3to4" fromLane="0" toLane="0"/>
    <connection from="2to3" to="3to4" fromLane="1" toLane="1"/>
    <connection from="2to3" to="3to4" fromLane="2" toLane="2"/>
    <connection from="2to3" to="3to28" fromLane="2" toLane="1"/>
    <connection from="2to3" to="3to28" fromLane="2" toLane="2"/>

    <connection from="2to7" to="7to6" fromLane="0" toLane="0"/>
    <connection from="2to7" to="7to12" fromLane="0" toLane="0"/>
    <connection from="2to7" to="7to12" fromLane="1" toLane="1"/>
    <connection from="2to7" to="7to12" fromLane="2" toLane="2"/>

    <connection from="31to21" to="21to22" fromLane="0" toLane="0"/>
    <connection from="31to21" to="21to16" fromLane="0" toLane="0"/>
    <connection from="31to21" to="21to16" fromLane="1" toLane="1"/>
    <connection from="31to21" to="21to16" fromLane="2" toLane="2"/>

    <connection from="33to23" to="23to24" fromLane="0" toLane="0"/>
    <connection from="33to23" to="23to18" fromLane="0" toLane="0"/>
    <connection from="33to23" to="23to18" fromLane="1" toLane="1"/>
    <connection from="33to23" to="23to18" fromLane="2" toLane="2"/>

    <connection from="36to19" to="19to18" fromLane="0" toLane="0"/>
    <connection from="36to19" to="19to18" fromLane="1" toLane="1"/>
    <connection from="36to19" to="19to18" fromLane="2" toLane="2"/>
    <connection from="36to19" to="19to24" fromLane="2" toLane="1"/>
    <connection from="36to19" to="19to24" fromLane="2" toLane="2"/>

    <connection from="38to9" to="9to8" fromLane="0" toLane="0"/>
    <connection from="38to9" to="9to8" fromLane="1" toLane="1"/>
    <connection from="38to9" to="9to8" fromLane="2" toLane="2"/>
    <connection from="38to9" to="9to14" fromLane="2" toLane="1"/>
    <connection from="38to9" to="9to14" fromLane="2" toLane="2"/>

    <connection from="3to4" to="4to9" fromLane="0" toLane="0"/>
    <connection from="3to4" to="4to39" fromLane="0" toLane="0"/>
    <connection from="3to4" to="4to39" fromLane="1" toLane="1"/>
    <connection from="3to4" to="4to39" fromLane="2" toLane="2"/>

    <connection from="40to20" to="20to30" fromLane="0" toLane="0"/>
    <connection from="40to20" to="20to21" fromLane="0" toLane="0"/>
    <connection from="40to20" to="20to21" fromLane="1" toLane="1"/>
    <connection from="40to20" to="20to21" fromLane="2" toLane="2"/>

    <connection from="42to10" to="10to15" fromLane="0" toLane="0"/>
    <connection from="42to10" to="10to11" fromLane="0" toLane="0"/>
    <connection from="42to10" to="10to11" fromLane="1" toLane="1"/>
    <connection from="42to10" to="10to11" fromLane="2" toLane="2"/>

    <connection from="44to0" to="0to5" fromLane="0" toLane="0"/>
    <connection from="44to0" to="0to1" fromLane="0" toLane="0"/>
    <connection from="44to0" to="0to1" fromLane="1" toLane="1"/>
    <connection from="44to0" to="0to1" fromLane="2" toLane="2"/>

    <connection from="4to9" to="9to8" fromLane="0" toLane="0"/>
    <connection from="4to9" to="9to14" fromLane="0" toLane="0"/>
    <connection from="4to9" to="9to14" fromLane="1" toLane="1"/>
    <connection from="4to9" to="9to14" fromLane="2" toLane="2"/>

    <connection from="5to10" to="10to15" fromLane="0" toLane="0"/>
    <connection from="5to10" to="10to15" fromLane="1" toLane="1"/>
    <connection from="5to10" to="10to15" fromLane="2" toLane="2"/>
    <connection from="5to10" to="10to11" fromLane="2" toLane="1"/>
    <connection from="5to10" to="10to11" fromLane="2" toLane="2"/>

    <connection from="6to1" to="1to2" fromLane="0" toLane="0"/>
    <connection from="6to1" to="1to26" fromLane="0" toLane="0"/>
    <connection from="6to1" to="1to26" fromLane="1" toLane="1"/>
    <connection from="6to1" to="1to26" fromLane="2" toLane="2"/>

    <connection from="6to5" to="5to43" fromLane="0" toLane="0"/>
    <connection from="6to5" to="5to43" fromLane="1" toLane="1"/>
    <connection from="6to5" to="5to43" fromLane="2" toLane="2"/>
    <connection from="6to5" to="5to10" fromLane="2" toLane="1"/>
    <connection from="6to5" to="5to10" fromLane="2" toLane="2"/>

    <connection from="7to12" to="12to17" fromLane="0" toLane="0"/>
    <connection from="7to12" to="12to17" fromLane="1" toLane="1"/>
    <connection from="7to12" to="12to17" fromLane="2" toLane="2"/>
    <connection from="7to12" to="12to13" fromLane="2" toLane="1"/>
    <connection from="7to12" to="12to13" fromLane="2" toLane="2"/>

    <connection from="7to6" to="6to1" fromLane="0" toLane="0"/>
    <connection from="7to6" to="6to5" fromLane="0" toLane="0"/>
    <connection from="7to6" to="6to5" fromLane="1" toLane="1"/>
    <connection from="7to6" to="6to5" fromLane="2" toLane="2"/>

    <connection from="8to3" to="3to4" fromLane="0" toLane="0"/>
    <connection from="8to3" to="3to28" fromLane="0" toLane="0"/>
    <connection from="8to3" to="3to28" fromLane="1" toLane="1"/>
    <connection from="8to3" to="3to28" fromLane="2" toLane="2"/>

    <connection from="8to7" to="7to6" fromLane="0" toLane="0"/>
    <connection from="8to7" to="7to6" fromLane="1" toLane="1"/>
    <connection from="8to7" to="7to6" fromLane="2" toLane="2"/>
    <connection from="8to7" to="7to12" fromLane="2" toLane="1"/>
    <connection from="8to7" to="7to12" fromLane="2" toLane="2"/>

    <connection from="9to14" to="14to19" fromLane="0" toLane="0"/>
    <connection from="9to14" to="14to19" fromLane="1" toLane="1"/>
    <connection from="9to14" to="14to19" fromLane="2" toLane="2"/>
    <connection from="9to14" to="14to37" fromLane="2" toLane="1"/>
    <connection from="9to14" to="14to37" fromLane="2" toLane="2"/>

    <connection from="9to8" to="8to3" fromLane="0" toLane="0"/>
    <connection from="9to8" to="8to7" fromLane="0" toLane="0"/>
    <connection from="9to8" to="8to7" fromLane="1" toLane="1"/>
    <connection from="9to8" to="8to7" fromLane="2" toLane="2"/>

</connections>
